/*--------------------------------*- C++ -*----------------------------------*\
  =========                 |
  \\      /  F ield         | OpenFOAM: The Open Source CFD Toolbox
   \\    /   O peration     | Version:  13
     \\/
\*---------------------------------------------------------------------------*/
FoamFile
{
    format      ascii;
    class       dictionary;
    location    "constant";
    object      initialConditions;
}

// * * * * * * * * * * * * * * * * * * * * * * * * * * * * * * * * * * * * * //

constantProperty pressure;

p           202650;  // Pa
T           300;     // K
fractionBasis  mole;

fractions
{
    N2      0.79;
    O2      0.21;
    NO      0;
    N       0;
    O       0;
}

// ************************************************************************* //
