/*--------------------------------*- C++ -*----------------------------------*\
  =========                 |
  \\      /  F ield         | OpenFOAM: The Open Source CFD Toolbox
   \\    /   O peration     | Website:  https://openfoam.org
    \\  /    A nd           | Version:  12
     \\/     M anipulation  |
\*---------------------------------------------------------------------------*/
FoamFile
{
    version     2.0;
    format      ascii;
    class       dictionary;
    object      blockMeshDict;
}
// * * * * * * * * * * * * * * * * * * * * * * * * * * * * * * * * * * * * * //

convertToMeters 1; // [cite: 217]

vertices
(
    (0 0 0) // 0
    (1 0 0) // 1
    (1 1 0) // 2
    (0 1 0) // 3
    (0 0 1) // 4
    (1 0 1) // 5
    (1 1 1) // 6
    (0 1 1) // 7
); // [cite: 218]

blocks
(
    // Increased to 3x3x3 to allow spatial gradients [cite: 219]
    hex (0 1 2 3 4 5 6 7) (3 3 3) simpleGrading (1 1 1)
);

edges
(
);

boundary
(
    // Changed from 'empty' to 'patch' to allow diffusion/flux between cells
    // and across the boundaries.
    allBoundaries
    {
        type patch;
        faces
        (
            (0 1 2 3) // bottom
            (4 5 6 7) // top
            (0 1 5 4) // front
            (2 3 7 6) // back
            (1 2 6 5) // right
            (0 3 7 4) // left
        );
    }
);

// ************************************************************************* //
