/*--------------------------------*- C++ -*----------------------------------*\
  =========                 |
  \\      /  F ield         | OpenFOAM: The Open Source CFD Toolbox
   \\    /   O peration     | Website:  https://openfoam.org
    \\  /    A nd           | Version:  13
     \\/     M anipulation  |
\*---------------------------------------------------------------------------*/
FoamFile
{
    format      ascii;
    class       dictionary;
    location    "constant";
    object      physicalProperties;
}
// * * * * * * * * * * * * * * * * * * * * * * * * * * * * * * * * * * * * * //

thermoType
{
    type            highEnthalpyThermo;
    mixture         coefficientWilkeMulticomponentMixture;
    transport       sutherland;
    thermo          janaf;
    energy          sensibleInternalEnergy;
    equationOfState perfectGas;
    specie          specie;
}

defaultSpecie N2;

// Standard OpenFOAM list (Keep consistent with Mutation++ list above)
species 
( 
    N2 O2 NO N O 
);

// * * * * * * * * * * * * * * * * * * * * * * * * * * * * * * * * * * * * * //
// Species Definitions (Only 5 needed now)
// * * * * * * * * * * * * * * * * * * * * * * * * * * * * * * * * * * * * * //

"N2"
{
    specie
    {
        molWeight       28.0134;
    }
    thermodynamics
    {
        Tlow            200;
        Thigh           20000;
        Tcommon         1000;
        highCpCoeffs    ( 3.5 0 0 0 0 0 0 ); // Dummies allowed if using Mutation++
        lowCpCoeffs     ( 3.5 0 0 0 0 0 0 );
    }
    transport
    {
        As              1.907238654e-06;
        Ts              403.2298446;
    }
    elements { N 2; }
}

"O2"
{
    specie
    {
        molWeight       31.9988;
    }
    thermodynamics
    {
        Tlow            200;
        Thigh           20000;
        Tcommon         1000;
        highCpCoeffs    ( 3.5 0 0 0 0 0 0 );
        lowCpCoeffs     ( 3.5 0 0 0 0 0 0 );
    }
    transport
    {
        As              2.206126191e-06;
        Ts              408.5263796;
    }
    elements { O 2; }
}

"NO"
{
    specie
    {
        molWeight       30.0061;
    }
    thermodynamics
    {
        Tlow            200;
        Thigh           20000;
        Tcommon         1000;
        highCpCoeffs    ( 3.5 0 0 0 0 0 0 );
        lowCpCoeffs     ( 3.5 0 0 0 0 0 0 );
    }
    transport
    {
        As              1.97390799e-06;
        Ts              403.2298469;
    }
    elements { N 1; O 1; }
}

"N"
{
    specie
    {
        molWeight       14.0067;
    }
    thermodynamics
    {
        Tlow            200;
        Thigh           20000;
        Tcommon         1000;
        highCpCoeffs    ( 2.5 0 0 0 0 0 0 );
        lowCpCoeffs     ( 2.5 0 0 0 0 0 0 );
    }
    transport
    {
        As              1.696593553e-06;
        Ts              390.6888192;
    }
    elements { N 1; }
}

"O"
{
    specie
    {
        molWeight       15.9994;
    }
    thermodynamics
    {
        Tlow            200;
        Thigh           20000;
        Tcommon         1000;
        highCpCoeffs    ( 2.5 0 0 0 0 0 0 );
        lowCpCoeffs     ( 2.5 0 0 0 0 0 0 );
    }
    transport
    {
        As              2.567509404e-06;
        Ts              394.5719957;
    }
    elements { O 1; }
}